This namelist contains various input parameters for HYDRO runs

&RUN
tend=1600
noutput=1000
nstepmax=11000
dtoutput=4.
/

&MESH
nx=2000
ny=2000
nxystep=500
prt=0
dx=0.05
boundary_left=1
boundary_right=1
boundary_down=1
boundary_up=1
testcase=0
/

&HYDRO
courant_factor=0.8
niter_riemann=10
/
